!-Generator IDFEditor 1.50
!-Option SortedOrder

!-NOTE: All comments with '!-' are ignored by the IDFEditor and are generated automatically.
!-      Use '!' comments if they need to be retained when using the IDFEditor.


!-   ===========  ALL OBJECTS IN CLASS: VERSION ===========

Version,
    9.0;                     !- Version Identifier


!-   ===========  ALL OBJECTS IN CLASS: SIMULATIONCONTROL ===========

SimulationControl,
    Yes,                     !- Do Zone Sizing Calculation
    No,                      !- Do System Sizing Calculation
    No,                      !- Do Plant Sizing Calculation
    No,                      !- Run Simulation for Sizing Periods
    Yes,                     !- Run Simulation for Weather File Run Periods
    No,                      !- Do HVAC Sizing Simulation for Sizing Periods
    1;                       !- Maximum Number of HVAC Sizing Simulation Passes


!-   ===========  ALL OBJECTS IN CLASS: BUILDING ===========

Building,
    Passivhaus,              !- Name
    0.0,                     !- North Axis {deg}
    City,                    !- Terrain
    0.04,                    !- Loads Convergence Tolerance Value
    0.4,                     !- Temperature Convergence Tolerance Value {deltaC}
    FullExteriorWithReflections,  !- Solar Distribution
    25,                      !- Maximum Number of Warmup Days
    ;                        !- Minimum Number of Warmup Days


!-   ===========  ALL OBJECTS IN CLASS: SHADOWCALCULATION ===========

ShadowCalculation,
    AverageOverDaysInFrequency,  !- Calculation Method
    20,                      !- Calculation Frequency
    15000,                   !- Maximum Figures in Shadow Overlap Calculations
    SutherlandHodgman,       !- Polygon Clipping Algorithm
    SimpleSkyDiffuseModeling;!- Sky Diffuse Modeling Algorithm


!-   ===========  ALL OBJECTS IN CLASS: SURFACECONVECTIONALGORITHM:INSIDE ===========

SurfaceConvectionAlgorithm:Inside,
    TARP;                    !- Algorithm


!-   ===========  ALL OBJECTS IN CLASS: SURFACECONVECTIONALGORITHM:OUTSIDE ===========

SurfaceConvectionAlgorithm:Outside,
    DOE-2;                   !- Algorithm


!-   ===========  ALL OBJECTS IN CLASS: HEATBALANCEALGORITHM ===========

HeatBalanceAlgorithm,
    ConductionFiniteDifference,  !- Algorithm
    200,                     !- Surface Temperature Upper Limit {C}
    0.1,                     !- Minimum Surface Convection Heat Transfer Coefficient Value {W/m2-K}
    1000;                    !- Maximum Surface Convection Heat Transfer Coefficient Value {W/m2-K}


!-   ===========  ALL OBJECTS IN CLASS: HEATBALANCESETTINGS:CONDUCTIONFINITEDIFFERENCE ===========

HeatBalanceSettings:ConductionFiniteDifference,
    FullyImplicitFirstOrder, !- Difference Scheme
    3,                       !- Space Discretization Constant
    1,                       !- Relaxation Factor
    0.002;                   !- Inside Face Surface Temperature Convergence Criteria


!-   ===========  ALL OBJECTS IN CLASS: TIMESTEP ===========

Timestep,
    6;                       !- Number of Timesteps per Hour


!-   ===========  ALL OBJECTS IN CLASS: SITE:LOCATION ===========

Site:Location,
    RS_Pelotas,              !- Name
    -31.46,                  !- Latitude {deg}
    -52.21,                  !- Longitude {deg}
    -3.0,                    !- Time Zone {hr}
    13;                      !- Elevation {m}


!-   ===========  ALL OBJECTS IN CLASS: SIZINGPERIOD:DESIGNDAY ===========

SizingPeriod:DesignDay,
    Floripa_Inverno,         !- Name
    5,                       !- Month
    20,                      !- Day of Month
    WinterDesignDay,         !- Day Type
    19.1,                    !- Maximum Dry-Bulb Temperature {C}
    17.1,                    !- Daily Dry-Bulb Temperature Range {deltaC}
    DefaultMultipliers,      !- Dry-Bulb Temperature Range Modifier Type
    ,                        !- Dry-Bulb Temperature Range Modifier Day Schedule Name
    DewPoint,                !- Humidity Condition Type
    13.9,                    !- Wetbulb or DewPoint at Maximum Dry-Bulb {C}
    ,                        !- Humidity Condition Day Schedule Name
    ,                        !- Humidity Ratio at Maximum Dry-Bulb {kgWater/kgDryAir}
    ,                        !- Enthalpy at Maximum Dry-Bulb {J/kg}
    ,                        !- Daily Wet-Bulb Temperature Range {deltaC}
    101241,                  !- Barometric Pressure {Pa}
    2.9,                     !- Wind Speed {m/s}
    0,                       !- Wind Direction {deg}
    No,                      !- Rain Indicator
    No,                      !- Snow Indicator
    No,                      !- Daylight Saving Time Indicator
    Schedule,                !- Solar Model Indicator
    Inverno_Rad_Direta,      !- Beam Solar Day Schedule Name
    Inverno_Rad_Difusa,      !- Diffuse Solar Day Schedule Name
    ,                        !- ASHRAE Clear Sky Optical Depth for Beam Irradiance (taub) {dimensionless}
    ,                        !- ASHRAE Clear Sky Optical Depth for Diffuse Irradiance (taud) {dimensionless}
    0;                       !- Sky Clearness

SizingPeriod:DesignDay,
    Floripa_verao,           !- Name
    1,                       !- Month
    23,                      !- Day of Month
    SummerDesignDay,         !- Day Type
    36,                      !- Maximum Dry-Bulb Temperature {C}
    24.8,                    !- Daily Dry-Bulb Temperature Range {deltaC}
    DefaultMultipliers,      !- Dry-Bulb Temperature Range Modifier Type
    ,                        !- Dry-Bulb Temperature Range Modifier Day Schedule Name
    DewPoint,                !- Humidity Condition Type
    22,                      !- Wetbulb or DewPoint at Maximum Dry-Bulb {C}
    ,                        !- Humidity Condition Day Schedule Name
    ,                        !- Humidity Ratio at Maximum Dry-Bulb {kgWater/kgDryAir}
    ,                        !- Enthalpy at Maximum Dry-Bulb {J/kg}
    ,                        !- Daily Wet-Bulb Temperature Range {deltaC}
    101241,                  !- Barometric Pressure {Pa}
    3.4,                     !- Wind Speed {m/s}
    90,                      !- Wind Direction {deg}
    No,                      !- Rain Indicator
    No,                      !- Snow Indicator
    No,                      !- Daylight Saving Time Indicator
    Schedule,                !- Solar Model Indicator
    Verao_Rad_Direta,        !- Beam Solar Day Schedule Name
    Verao_Rad_Difusa,        !- Diffuse Solar Day Schedule Name
    ,                        !- ASHRAE Clear Sky Optical Depth for Beam Irradiance (taub) {dimensionless}
    ,                        !- ASHRAE Clear Sky Optical Depth for Diffuse Irradiance (taud) {dimensionless}
    1;                       !- Sky Clearness


!-   ===========  ALL OBJECTS IN CLASS: RUNPERIOD ===========

RunPeriod,
    Anual,                   !- Name
    1,                       !- Begin Month
    1,                       !- Begin Day of Month
    ,                        !- Begin Year
    12,                      !- End Month
    31,                      !- End Day of Month
    ,                        !- End Year
    ,                        !- Day of Week for Start Day
    Yes,                     !- Use Weather File Holidays and Special Days
    No,                      !- Use Weather File Daylight Saving Period
    Yes,                     !- Apply Weekend Holiday Rule
    Yes,                     !- Use Weather File Rain Indicators
    Yes;                     !- Use Weather File Snow Indicators


!-   ===========  ALL OBJECTS IN CLASS: RUNPERIODCONTROL:SPECIALDAYS ===========

RunPeriodControl:SpecialDays,
    Conf Universal,          !- Name
    January 1,               !- Start Date
    1,                       !- Duration {days}
    Holiday;                 !- Special Day Type

RunPeriodControl:SpecialDays,
    Carnaval,                !- Name
    3rd Tuesday in February, !- Start Date
    1,                       !- Duration {days}
    Holiday;                 !- Special Day Type

RunPeriodControl:SpecialDays,
    Niver Cidade,            !- Name
    April 1,                 !- Start Date
    1,                       !- Duration {days}
    Holiday;                 !- Special Day Type

RunPeriodControl:SpecialDays,
    Sexta-Feira Santa,       !- Name
    1st Friday in April,     !- Start Date
    1,                       !- Duration {days}
    Holiday;                 !- Special Day Type

RunPeriodControl:SpecialDays,
    Tiradentes,              !- Name
    April 21,                !- Start Date
    1,                       !- Duration {days}
    Holiday;                 !- Special Day Type

RunPeriodControl:SpecialDays,
    Dia do Trabalho,         !- Name
    May 1,                   !- Start Date
    1,                       !- Duration {days}
    Holiday;                 !- Special Day Type

RunPeriodControl:SpecialDays,
    Corpus Christi,          !- Name
    1st Thursday in June,    !- Start Date
    1,                       !- Duration {days}
    Holiday;                 !- Special Day Type

RunPeriodControl:SpecialDays,
    Sao Lourenco,            !- Name
    August 10,               !- Start Date
    1,                       !- Duration {days}
    Holiday;                 !- Special Day Type

RunPeriodControl:SpecialDays,
    Independencia,           !- Name
    September 7,             !- Start Date
    1,                       !- Duration {days}
    Holiday;                 !- Special Day Type

RunPeriodControl:SpecialDays,
    Nossa Senhora Aparecida, !- Name
    October 12,              !- Start Date
    1,                       !- Duration {days}
    Holiday;                 !- Special Day Type

RunPeriodControl:SpecialDays,
    Finados,                 !- Name
    November 2,              !- Start Date
    1,                       !- Duration {days}
    Holiday;                 !- Special Day Type

RunPeriodControl:SpecialDays,
    Proc Republica,          !- Name
    November 15,             !- Start Date
    1,                       !- Duration {days}
    Holiday;                 !- Special Day Type

RunPeriodControl:SpecialDays,
    Natal,                   !- Name
    December 25,             !- Start Date
    1,                       !- Duration {days}
    Holiday;                 !- Special Day Type


!-   ===========  ALL OBJECTS IN CLASS: RUNPERIODCONTROL:DAYLIGHTSAVINGTIME ===========

RunPeriodControl:DaylightSavingTime,
    3rd Sunday in October,   !- Start Date
    3nd Sunday in February;  !- End Date


!-   ===========  ALL OBJECTS IN CLASS: SITE:GROUNDTEMPERATURE:BUILDINGSURFACE ===========

Site:GroundTemperature:BuildingSurface,
    26.02,                   !- January Ground Temperature {C}
    26.01,                   !- February Ground Temperature {C}
    25.58,                   !- March Ground Temperature {C}
    24.38,                   !- April Ground Temperature {C}
    22.12,                   !- May Ground Temperature {C}
    19.77,                   !- June Ground Temperature {C}
    19.51,                   !- July Ground Temperature {C}
    19.23,                   !- August Ground Temperature {C}
    20.58,                   !- September Ground Temperature {C}
    21.5,                    !- October Ground Temperature {C}
    23.16,                   !- November Ground Temperature {C}
    24.45;                   !- December Ground Temperature {C}


!-   ===========  ALL OBJECTS IN CLASS: SCHEDULETYPELIMITS ===========

ScheduleTypeLimits,
    Any Number;              !- Name

ScheduleTypeLimits,
    Fraction,                !- Name
    0.0,                     !- Lower Limit Value
    1.0,                     !- Upper Limit Value
    CONTINUOUS;              !- Numeric Type

ScheduleTypeLimits,
    Temperature,             !- Name
    -60,                     !- Lower Limit Value
    200,                     !- Upper Limit Value
    CONTINUOUS;              !- Numeric Type

ScheduleTypeLimits,
    On/Off,                  !- Name
    0,                       !- Lower Limit Value
    1,                       !- Upper Limit Value
    DISCRETE;                !- Numeric Type

ScheduleTypeLimits,
    Control Type,            !- Name
    0,                       !- Lower Limit Value
    4,                       !- Upper Limit Value
    DISCRETE;                !- Numeric Type

ScheduleTypeLimits,
    Humidity,                !- Name
    10,                      !- Lower Limit Value
    90,                      !- Upper Limit Value
    CONTINUOUS;              !- Numeric Type

ScheduleTypeLimits,
    Number;                  !- Name


!-   ===========  ALL OBJECTS IN CLASS: SCHEDULE:DAY:HOURLY ===========

Schedule:Day:Hourly,
    Verao_Rad_Direta,        !- Name
    Any Number,              !- Schedule Type Limits Name
    0,                       !- Hour 1
    0,                       !- Hour 2
    0,                       !- Hour 3
    0,                       !- Hour 4
    0,                       !- Hour 5
    13.41,                   !- Hour 6
    164.08,                  !- Hour 7
    348.42,                  !- Hour 8
    566.83,                  !- Hour 9
    707.25,                  !- Hour 10
    731.08,                  !- Hour 11
    757.25,                  !- Hour 12
    769.75,                  !- Hour 13
    659.25,                  !- Hour 14
    613.08,                  !- Hour 15
    387,                     !- Hour 16
    260.83,                  !- Hour 17
    81.58,                   !- Hour 18
    24.67,                   !- Hour 19
    2.08,                    !- Hour 20
    0,                       !- Hour 21
    0,                       !- Hour 22
    0,                       !- Hour 23
    0;                       !- Hour 24

Schedule:Day:Hourly,
    Verao_Rad_Difusa,        !- Name
    Any Number,              !- Schedule Type Limits Name
    0,                       !- Hour 1
    0,                       !- Hour 2
    0,                       !- Hour 3
    0,                       !- Hour 4
    0,                       !- Hour 5
    11.08,                   !- Hour 6
    99.05,                   !- Hour 7
    130.16,                  !- Hour 8
    136.17,                  !- Hour 9
    158.58,                  !- Hour 10
    200.25,                  !- Hour 11
    216,                     !- Hour 12
    209.16,                  !- Hour 13
    225.25,                  !- Hour 14
    184.41,                  !- Hour 15
    202,                     !- Hour 16
    152.25,                  !- Hour 17
    115.16,                  !- Hour 18
    34.08,                   !- Hour 19
    2.58,                    !- Hour 20
    0,                       !- Hour 21
    0,                       !- Hour 22
    0,                       !- Hour 23
    0;                       !- Hour 24

Schedule:Day:Hourly,
    Inverno_Rad_Direta,      !- Name
    Any Number,              !- Schedule Type Limits Name
    0,                       !- Hour 1
    0,                       !- Hour 2
    0,                       !- Hour 3
    0,                       !- Hour 4
    0,                       !- Hour 5
    0,                       !- Hour 6
    0,                       !- Hour 7
    0,                       !- Hour 8
    0.16,                    !- Hour 9
    3.25,                    !- Hour 10
    11.83,                   !- Hour 11
    10.17,                   !- Hour 12
    30.75,                   !- Hour 13
    6.75,                    !- Hour 14
    5.5,                     !- Hour 15
    0.58,                    !- Hour 16
    0,                       !- Hour 17
    0,                       !- Hour 18
    0,                       !- Hour 19
    0,                       !- Hour 20
    0,                       !- Hour 21
    0,                       !- Hour 22
    0,                       !- Hour 23
    0;                       !- Hour 24

Schedule:Day:Hourly,
    Inverno_Rad_Difusa,      !- Name
    Any Number,              !- Schedule Type Limits Name
    0,                       !- Hour 1
    0,                       !- Hour 2
    0,                       !- Hour 3
    0,                       !- Hour 4
    0,                       !- Hour 5
    0,                       !- Hour 6
    0,                       !- Hour 7
    7,                       !- Hour 8
    18.25,                   !- Hour 9
    95.66,                   !- Hour 10
    184.75,                  !- Hour 11
    173.58,                  !- Hour 12
    220.58,                  !- Hour 13
    146.83,                  !- Hour 14
    126.41,                  !- Hour 15
    26.83,                   !- Hour 16
    11.83,                   !- Hour 17
    1.17,                    !- Hour 18
    0,                       !- Hour 19
    0,                       !- Hour 20
    0,                       !- Hour 21
    0,                       !- Hour 22
    0,                       !- Hour 23
    0;                       !- Hour 24


!-   ===========  ALL OBJECTS IN CLASS: SCHEDULE:COMPACT ===========

Schedule:Compact,
    Ocupation_rooms,         !- Name
    Fraction,                !- Schedule Type Limits Name
    Through: 12/31,          !- Field 1
    For: Weekdays,           !- Field 2
    Until: 07:00,            !- Field 3
    1,                       !- Field 4
    Until: 20:00,            !- Field 5
    0,                       !- Field 6
    Until: 21:00,            !- Field 7
    .5,                      !- Field 8
    Until: 24:00,            !- Field 9
    1,                       !- Field 10
    For: AllOtherDays,       !- Field 11
    Until: 09:00,            !- Field 12
    1,                       !- Field 13
    Until: 10:00,            !- Field 14
    .5,                      !- Field 15
    Until: 20:00,            !- Field 16
    0,                       !- Field 17
    Until: 24:00,            !- Field 18
    1;                       !- Field 19

Schedule:Compact,
    Ocupation_living_room,   !- Name
    Fraction,                !- Schedule Type Limits Name
    Through: 12/31,          !- Field 1
    For: Weekdays,           !- Field 2
    Until: 13:00,            !- Field 3
    0,                       !- Field 4
    Until: 18:00,            !- Field 5
    .25,                     !- Field 6
    Until: 19:00,            !- Field 7
    1,                       !- Field 8
    Until: 21:00,            !- Field 9
    .5,                      !- Field 10
    Until: 24:00,            !- Field 11
    0,                       !- Field 12
    For: AllOtherDays,       !- Field 13
    Until: 10:00,            !- Field 14
    0,                       !- Field 15
    Until: 11:00,            !- Field 16
    .25,                     !- Field 17
    Until: 12:00,            !- Field 18
    .75,                     !- Field 19
    Until: 13:00,            !- Field 20
    0,                       !- Field 21
    Until: 14:00,            !- Field 22
    .75,                     !- Field 23
    Until: 17:00,            !- Field 24
    .5,                      !- Field 25
    Until: 19:00,            !- Field 26
    .25,                     !- Field 27
    Until: 21:00,            !- Field 28
    .5,                      !- Field 29
    Until: 24:00,            !- Field 30
    0;                       !- Field 31

Schedule:Compact,
    Ilumination_rooms,       !- Name
    Fraction,                !- Schedule Type Limits Name
    Through: 12/31,          !- Field 1
    For: Weekdays,           !- Field 2
    Until: 06:00,            !- Field 3
    0,                       !- Field 4
    Until: 07:00,            !- Field 5
    1,                       !- Field 6
    Until: 20:00,            !- Field 7
    0,                       !- Field 8
    Until: 22:00,            !- Field 9
    1,                       !- Field 10
    Until: 24:00,            !- Field 11
    0,                       !- Field 12
    For: AllOtherDays,       !- Field 13
    Until: 08:00,            !- Field 14
    0,                       !- Field 15
    Until: 09:00,            !- Field 16
    1,                       !- Field 17
    Until: 20:00,            !- Field 18
    0,                       !- Field 19
    Until: 22:00,            !- Field 20
    1,                       !- Field 21
    Until: 24:00,            !- Field 22
    0;                       !- Field 23

Schedule:Compact,
    Ilumination_living_room, !- Name
    Fraction,                !- Schedule Type Limits Name
    Through: 12/31,          !- Field 1
    For: Weekdays,           !- Field 2
    Until: 16:00,            !- Field 3
    0,                       !- Field 4
    Until: 21:00,            !- Field 5
    1,                       !- Field 6
    Until: 24:00,            !- Field 7
    0,                       !- Field 8
    For: AllOtherDays,       !- Field 9
    Until: 10:00,            !- Field 10
    0,                       !- Field 11
    Until: 12:00,            !- Field 12
    1,                       !- Field 13
    Until: 16:00,            !- Field 14
    0,                       !- Field 15
    Until: 21:00,            !- Field 16
    1,                       !- Field 17
    Until: 24:00,            !- Field 18
    0;                       !- Field 19

Schedule:Compact,
    Activities_rooms,        !- Name
    Any Number,              !- Schedule Type Limits Name
    Through: 12/31,          !- Field 1
    For: AllDays,            !- Field 2
    Until: 24:00,            !- Field 3
    108;                     !- Field 4

Schedule:Compact,
    Activities_living_rooms, !- Name
    Any Number,              !- Schedule Type Limits Name
    Through: 12/31,          !- Field 1
    For: AllDays,            !- Field 2
    Until: 24:00,            !- Field 3
    81;                      !- Field 4

Schedule:Compact,
    Equipments,              !- Name
    Fraction,                !- Schedule Type Limits Name
    Through: 12/31,          !- Field 1
    For: AllDays,            !- Field 2
    Until: 24:00,            !- Field 3
    1;                       !- Field 4

Schedule:Compact,
    Natural_ventilation,     !- Name
    Fraction,                !- Schedule Type Limits Name
    Through: 12/31,          !- Field 1
    For: AllDays,            !- Field 2
    Until: 08:00,            !- Field 3
    0,                       !- Field 4
    Until: 21:00,            !- Field 5
    1,                       !- Field 6
    Until: 24:00,            !- Field 7
    0;                       !- Field 8

Schedule:Compact,
    Air_conditioning,        !- Name
    Fraction,                !- Schedule Type Limits Name
    Through: 12/31,          !- Field 1
    For: AllDays,            !- Field 2
    Until: 08:00,            !- Field 3
    1,                       !- Field 4
    Until: 21:00,            !- Field 5
    0,                       !- Field 6
    Until: 24:00,            !- Field 7
    1;                       !- Field 8

Schedule:Compact,
    Always On,               !- Name
    On/Off,                  !- Schedule Type Limits Name
    Through: 12/31,          !- Field 1
    For: AllDays,            !- Field 2
    Until: 24:00,            !- Field 3
    1.0;                     !- Field 4

Schedule:Compact,
    Always Off,              !- Name
    On/Off,                  !- Schedule Type Limits Name
    Through: 12/31,          !- Field 1
    For: AllDays,            !- Field 2
    Until: 24:00,            !- Field 3
    0.0;                     !- Field 4

Schedule:Compact,
    VN_20,                   !- Name
    Temperature,             !- Schedule Type Limits Name
    Through: 12/31,          !- Field 1
    For: AllDays,            !- Field 2
    Until: 24:00,            !- Field 3
    20;                      !- Field 4

Schedule:Compact,
    ClothingInsulationSchedule,  !- Name
    Any Number,              !- Schedule Type Limits Name
    Through: 04/30,          !- Field 1
    For: AllDays,            !- Field 2
    Until: 24:00,            !- Field 3
    .5,                      !- Field 4
    Through: 09/30,          !- Field 5
    For: AllDays,            !- Field 6
    Until: 24:00,            !- Field 7
    1,                       !- Field 8
    Through: 12/31,          !- Field 9
    For: AllDays,            !- Field 10
    Until: 24:00,            !- Field 11
    .5;                      !- Field 12

Schedule:Compact,
    Window Shading,          !- Name
    On/Off,                  !- Schedule Type Limits Name
    Through: 4/30,           !- Field 1
    For: AllDays,            !- Field 2
    Until: 24:00,            !- Field 3
    1,                       !- Field 4
    Through: 10/31,          !- Field 5
    For: AllDays,            !- Field 6
    Until: 24:00,            !- Field 7
    0,                       !- Field 8
    Through: 12/31,          !- Field 9
    For: AllDays,            !- Field 10
    Until: 24:00,            !- Field 11
    1;                       !- Field 12

Schedule:Compact,
    hybrid_controller,       !- Name
    Any Number,              !- Schedule Type Limits Name
    Through: 12/31,          !- Field 1
    For: AllDays,            !- Field 2
    Until: 24:00,            !- Field 3
    5;                       !- Field 4


!-   ===========  ALL OBJECTS IN CLASS: MATERIAL ===========

Material,
    Radier concreto,         !- Name
    Rough,                   !- Roughness
    0.1,                     !- Thickness {m}
    1.75,                    !- Conductivity {W/m-K}
    2200,                    !- Density {kg/m3}
    1000;                    !- Specific Heat {J/kg-K}

Material,
    Argamassa piso,          !- Name
    Smooth,                  !- Roughness
    0.02,                    !- Thickness {m}
    1.15,                    !- Conductivity {W/m-K}
    1800,                    !- Density {kg/m3}
    1000,                    !- Specific Heat {J/kg-K}
    0.85,                    !- Thermal Absorptance
    0.3,                     !- Solar Absorptance
    0.3;                     !- Visible Absorptance

Material,
    Forro de madeira,        !- Name
    MediumSmooth,            !- Roughness
    0.02,                    !- Thickness {m}
    0.12,                    !- Conductivity {W/m-K}
    450,                     !- Density {kg/m3}
    1340;                    !- Specific Heat {J/kg-K}

Material,
    Telha fibrocimento,      !- Name
    Smooth,                  !- Roughness
    0.008,                   !- Thickness {m}
    0.65,                    !- Conductivity {W/m-K}
    1800,                    !- Density {kg/m3}
    840,                     !- Specific Heat {J/kg-K}
    0.9,                     !- Thermal Absorptance
    0.6,                     !- Solar Absorptance
    0.6;                     !- Visible Absorptance

Material,
    Ceramica equivalente,    !- Name
    MediumSmooth,            !- Roughness
    0.15,                    !- Thickness {m}
    0.7015,                  !- Conductivity {W/m-K}
    609.28,                  !- Density {kg/m3}
    920;                     !- Specific Heat {J/kg-K}

Material,
    Argamassa reboco ext,    !- Name
    Smooth,                  !- Roughness
    0.02,                    !- Thickness {m}
    1.15,                    !- Conductivity {W/m-K}
    1800,                    !- Density {kg/m3}
    1000,                    !- Specific Heat {J/kg-K}
    0.9,                     !- Thermal Absorptance
    0.2,                     !- Solar Absorptance
    0.2;                     !- Visible Absorptance

Material,
    Madeira  porta,          !- Name
    Smooth,                  !- Roughness
    0.03,                    !- Thickness {m}
    0.23,                    !- Conductivity {W/m-K}
    600,                     !- Density {kg/m3}
    1340,                    !- Specific Heat {J/kg-K}
    0.9,                     !- Thermal Absorptance
    0.7,                     !- Solar Absorptance
    0.7;                     !- Visible Absorptance

Material,
    Revestimento Ceramico 10mm,  !- Name
    MediumSmooth,            !- Roughness
    0.01,                    !- Thickness {m}
    1.3,                     !- Conductivity {W/m-K}
    2300,                    !- Density {kg/m3}
    965,                     !- Specific Heat {J/kg-K}
    0.9,                     !- Thermal Absorptance
    0.2,                     !- Solar Absorptance
    0.2;                     !- Visible Absorptance

Material,
    MDF porta,               !- Name
    Rough,                   !- Roughness
    0.02,                    !- Thickness {m}
    0.14,                    !- Conductivity {W/m-K}
    600,                     !- Density {kg/m3}
    2300,                    !- Specific Heat {J/kg-K}
    0.9,                     !- Thermal Absorptance
    0.7,                     !- Solar Absorptance
    0.7;                     !- Visible Absorptance

Material,
    Ceramica interna,        !- Name
    MediumSmooth,            !- Roughness
    0.11,                    !- Thickness {m}
    1,                       !- Conductivity {W/m-K}
    1800,                    !- Density {kg/m3}
    920;                     !- Specific Heat {J/kg-K}

Material,